$DATA1 SOURCE='FineSimPro' VERSION='J-2014.09-1'
.TITLE '* Nettran: AMD.64 Release B-2008.09.SP5.HF2.26004 2012/07/19'
         avgval         temper         alter#
    -3.2510e-05     2.5000e+01     1.0000e+00
